 
  Mrv1652307191923442D          

 25 29  0  0  1  0            999 V2000
   22.2427  -19.9710    0.0000 C   0  0  0  0  0  0  0  0  0  0  0  0
   22.9571  -19.5602    0.0000 C   0  0  0  0  0  0  0  0  0  0  0  0
   21.4594  -19.7087    0.0000 C   0  0  1  0  0  0  0  0  0  0  0  0
   22.2806  -20.7994    0.0000 C   0  0  0  0  0  0  0  0  0  0  0  0
   23.6681  -19.9744    0.0000 C   0  0  0  0  0  0  0  0  0  0  0  0
   22.9606  -18.7355    0.0000 O   0  0  0  0  0  0  0  0  0  0  0  0
   20.9693  -20.3816    0.0000 C   0  0  1  0  0  0  0  0  0  0  0  0
   20.9726  -19.0324    0.0000 C   0  0  0  0  0  0  0  0  0  0  0  0
   22.9571  -21.2100    0.0000 C   0  0  0  0  0  0  0  0  0  0  0  0
   21.4525  -21.0513    0.0000 O   0  0  0  0  0  0  0  0  0  0  0  0
   24.3860  -19.5671    0.0000 C   0  0  0  0  0  0  0  0  0  0  0  0
   23.6681  -20.7994    0.0000 C   0  0  0  0  0  0  0  0  0  0  0  0
   23.6785  -18.3282    0.0000 C   0  0  0  0  0  0  0  0  0  0  0  0
   20.1789  -20.1195    0.0000 O   0  0  0  0  0  0  0  0  0  0  0  0
   20.1824  -19.2876    0.0000 C   0  0  0  0  0  0  0  0  0  0  0  0
   24.3894  -18.7424    0.0000 C   0  0  0  0  0  0  0  0  0  0  0  0
   25.1661  -19.8261    0.0000 C   0  0  0  0  0  0  0  0  0  0  0  0
   24.3860  -21.2100    0.0000 O   0  0  0  0  0  0  0  0  0  0  0  0
   23.6716  -17.4998    0.0000 O   0  0  0  0  0  0  0  0  0  0  0  0
   25.1730  -18.4938    0.0000 C   0  0  0  0  0  0  0  0  0  0  0  0
   25.6526  -19.1598    0.0000 C   0  0  0  0  0  0  0  0  0  0  0  0
   25.0970  -20.7889    0.0000 C   0  0  0  0  0  0  0  0  0  0  0  0
   25.4317  -17.7069    0.0000 O   0  0  0  0  0  0  0  0  0  0  0  0
   21.8726  -18.9930    0.0000 H   0  0  0  0  0  0  0  0  0  0  0  0
   20.5560  -21.0975    0.0000 H   0  0  0  0  0  0  0  0  0  0  0  0
  1  2  1  0  0  0  0
  1  3  1  0  0  0  0
  1  4  2  0  0  0  0
  2  5  2  0  0  0  0
  2  6  1  0  0  0  0
  3  7  1  0  0  0  0
  3  8  1  0  0  0  0
  4  9  1  0  0  0  0
  4 10  1  0  0  0  0
  5 11  1  0  0  0  0
  5 12  1  0  0  0  0
  6 13  1  0  0  0  0
  7 14  1  0  0  0  0
  8 15  2  0  0  0  0
 11 16  2  0  0  0  0
 11 17  1  0  0  0  0
 12 18  1  0  0  0  0
 13 19  2  0  0  0  0
 16 20  1  0  0  0  0
 17 21  1  0  0  0  0
 18 22  1  0  0  0  0
 20 23  2  0  0  0  0
  7 10  1  0  0  0  0
  9 12  2  0  0  0  0
 13 16  1  0  0  0  0
 14 15  1  0  0  0  0
 20 21  1  0  0  0  0
  3 24  1  6  0  0  0
  7 25  1  6  0  0  0
M  END

