 
  Mrv1652306201917502D          

 26 31  0  0  1  0            999 V2000
   22.2445  -19.9726    0.0000 C   0  0  0  0  0  0  0  0  0  0  0  0
   22.9590  -19.5618    0.0000 C   0  0  0  0  0  0  0  0  0  0  0  0
   21.4611  -19.7103    0.0000 C   0  0  1  0  0  0  0  0  0  0  0  0
   22.2824  -20.8011    0.0000 C   0  0  0  0  0  0  0  0  0  0  0  0
   23.6700  -19.9760    0.0000 C   0  0  0  0  0  0  0  0  0  0  0  0
   22.9625  -18.7370    0.0000 O   0  0  0  0  0  0  0  0  0  0  0  0
   20.9710  -20.3833    0.0000 C   0  0  1  0  0  0  0  0  0  0  0  0
   20.9743  -19.0339    0.0000 C   0  0  2  0  0  0  0  0  0  0  0  0
   22.9590  -21.2117    0.0000 C   0  0  0  0  0  0  0  0  0  0  0  0
   21.4542  -21.0530    0.0000 O   0  0  0  0  0  0  0  0  0  0  0  0
   24.3880  -19.5687    0.0000 C   0  0  0  0  0  0  0  0  0  0  0  0
   23.6700  -20.8011    0.0000 C   0  0  0  0  0  0  0  0  0  0  0  0
   23.6804  -18.3297    0.0000 C   0  0  0  0  0  0  0  0  0  0  0  0
   20.1805  -20.1211    0.0000 O   0  0  0  0  0  0  0  0  0  0  0  0
   20.1840  -19.2892    0.0000 C   0  0  2  0  0  0  0  0  0  0  0  0
   24.3914  -18.7439    0.0000 C   0  0  0  0  0  0  0  0  0  0  0  0
   25.1681  -19.8277    0.0000 C   0  0  0  0  0  0  0  0  0  0  0  0
   24.3880  -21.2117    0.0000 O   0  0  0  0  0  0  0  0  0  0  0  0
   23.6735  -17.5012    0.0000 O   0  0  0  0  0  0  0  0  0  0  0  0
   25.1750  -18.4953    0.0000 C   0  0  0  0  0  0  0  0  0  0  0  0
   25.6547  -19.1614    0.0000 C   0  0  0  0  0  0  0  0  0  0  0  0
   25.0990  -20.7906    0.0000 C   0  0  0  0  0  0  0  0  0  0  0  0
   25.4338  -17.7083    0.0000 O   0  0  0  0  0  0  0  0  0  0  0  0
   21.8744  -18.9945    0.0000 H   0  0  0  0  0  0  0  0  0  0  0  0
   20.5577  -21.0992    0.0000 H   0  0  0  0  0  0  0  0  0  0  0  0
   20.3979  -18.4908    0.0000 O   0  0  0  0  0  0  0  0  0  0  0  0
  1  2  1  0  0  0  0
  1  3  1  0  0  0  0
  1  4  2  0  0  0  0
  2  5  2  0  0  0  0
  2  6  1  0  0  0  0
  3  7  1  0  0  0  0
  3  8  1  0  0  0  0
  4  9  1  0  0  0  0
  4 10  1  0  0  0  0
  5 11  1  0  0  0  0
  5 12  1  0  0  0  0
  6 13  1  0  0  0  0
  7 14  1  0  0  0  0
  8 15  1  0  0  0  0
 11 16  2  0  0  0  0
 11 17  1  0  0  0  0
 12 18  1  0  0  0  0
 13 19  2  0  0  0  0
 16 20  1  0  0  0  0
 17 21  1  0  0  0  0
 18 22  1  0  0  0  0
 20 23  2  0  0  0  0
  7 10  1  0  0  0  0
  9 12  2  0  0  0  0
 13 16  1  0  0  0  0
 14 15  1  0  0  0  0
 20 21  1  0  0  0  0
  3 24  1  6  0  0  0
  7 25  1  6  0  0  0
 15 26  1  6  0  0  0
  8 26  1  6  0  0  0
M  END

