aflatoxin
COBRA Toolbox v3.0 - explicitH molecule  - 02-Feb-2021 17:06:38
InChIKey=OQIQSTLJSLGHID-UHFFFAOYSA-N
 35 39  0  0  1  0  0  0  0  0999 V2000
   -4.2880    0.4723    0.0000 C   0  0  0  0  0  0  0  0  0  0  0  0
   -4.2544    1.6249    0.0000 C   0  0  0  0  0  0  0  0  0  0  0  0
   -4.8232    2.4078    0.0000 C   0  0  0  0  0  0  0  0  0  0  0  0
    0.8438    2.3868    0.0000 C   0  0  0  0  0  0  0  0  0  0  0  0
    1.6634    1.9145    0.0000 C   0  0  0  0  0  0  0  0  0  0  0  0
   -1.6577   -0.0116    0.0000 C   0  0  0  0  0  0  0  0  0  0  0  0
   -3.3340    1.9239    0.0000 C   0  0  0  0  0  0  0  0  0  0  0  0
    0.0123    1.9135    0.0000 C   0  0  3  0  0  0  0  0  0  0  0  0
   -4.2544    3.1908    0.0000 C   0  0  0  0  0  0  0  0  0  0  0  0
   -2.4958    0.4723    0.0000 C   0  0  0  0  0  0  0  0  0  0  0  0
   -0.8196    0.4723    0.0000 C   0  0  0  0  0  0  0  0  0  0  0  0
   -3.3340    2.8917    0.0000 C   0  0  0  0  0  0  0  0  0  0  0  0
   -2.4958    1.4400    0.0000 C   0  0  0  0  0  0  0  0  0  0  0  0
   -0.8196    1.4400    0.0000 C   0  0  0  0  0  0  0  0  0  0  0  0
   -1.6577    1.9239    0.0000 C   0  0  0  0  0  0  0  0  0  0  0  0
   -2.4958    3.3756    0.0000 C   0  0  0  0  0  0  0  0  0  0  0  0
    0.8318    0.4734    0.0000 C   0  0  3  0  0  0  0  0  0  0  0  0
   -4.5741    4.1748    0.0000 O   0  0  0  0  0  0  0  0  0  0  0  0
   -2.4958    4.4103    0.0000 O   0  0  0  0  0  0  0  0  0  0  0  0
   -3.3919   -0.0451    0.0000 O   0  0  0  0  0  0  0  0  0  0  0  0
    1.6634    0.9467    0.0000 O   0  0  0  0  0  0  0  0  0  0  0  0
    0.0000   -0.0000    0.0000 O   0  0  0  0  0  0  0  0  0  0  0  0
   -1.6577    2.8917    0.0000 O   0  0  0  0  0  0  0  0  0  0  0  0
   -4.2880    1.5423    0.0000 H   0  0  0  0  0  0  0  0  0  0  0  0
   -5.2147   -0.0627    0.0000 H   0  0  0  0  0  0  0  0  0  0  0  0
   -5.2146    1.0073    0.0000 H   0  0  0  0  0  0  0  0  0  0  0  0
   -4.5851    0.6073    0.0000 H   0  0  0  0  0  0  0  0  0  0  0  0
   -3.4978    0.8683    0.0000 H   0  0  0  0  0  0  0  0  0  0  0  0
   -5.8932    2.4078    0.0000 H   0  0  0  0  0  0  0  0  0  0  0  0
   -5.3090    3.3612    0.0000 H   0  0  0  0  0  0  0  0  0  0  0  0
    0.8465    3.4188    0.0000 H   0  0  0  0  0  0  0  0  0  0  0  0
    2.5569    2.4309    0.0000 H   0  0  0  0  0  0  0  0  0  0  0  0
   -1.6577   -1.0436    0.0000 H   0  0  0  0  0  0  0  0  0  0  0  0
   -0.5170    2.8434    0.0000 H   0  0  0  0  0  0  0  0  0  0  0  0
    1.1151    1.5052    0.0000 H   0  0  0  0  0  0  0  0  0  0  0  0
  1 20  1  0  0  0  0
  1 24  1  0  0  0  0
  1 25  1  0  0  0  0
  1 26  1  0  0  0  0
  2  3  1  0  0  0  0
  2  7  1  0  0  0  0
  2 27  1  0  0  0  0
  2 28  1  0  0  0  0
  3  9  1  0  0  0  0
  3 29  1  0  0  0  0
  3 30  1  0  0  0  0
  4  5  2  0  0  0  0
  4  8  1  0  0  0  0
  4 31  1  0  0  0  0
  5 21  1  0  0  0  0
  5 32  1  0  0  0  0
  6 10  2  0  0  0  0
  6 11  1  0  0  0  0
  6 33  1  0  0  0  0
  7 12  2  0  0  0  0
  7 13  1  0  0  0  0
  8 14  1  0  0  0  0
  8 17  1  0  0  0  0
  8 34  1  0  0  0  0
  9 12  1  0  0  0  0
  9 18  2  0  0  0  0
 10 13  1  0  0  0  0
 10 20  1  0  0  0  0
 11 14  2  0  0  0  0
 11 22  1  0  0  0  0
 12 16  1  0  0  0  0
 13 15  2  0  0  0  0
 14 15  1  0  0  0  0
 15 23  1  0  0  0  0
 16 19  2  0  0  0  0
 16 23  1  0  0  0  0
 17 21  1  0  0  0  0
 17 22  1  0  0  0  0
 17 35  1  0  0  0  0
M  END

