104756
  -OEChem-03012120092D

 36 41  0     1  0  0  0  0  0999 V2000
    6.0147   -3.1716    0.0000 O   0  0  0  0  0  0  0  0  0  0  0  0
    7.8101   -2.3702    0.0000 O   0  0  0  0  0  0  0  0  0  0  0  0
    8.0115   -0.4954    0.0000 O   0  0  0  0  0  0  0  0  0  0  0  0
    4.6485   -0.3630    0.0000 O   0  0  0  0  0  0  0  0  0  0  0  0
    6.4084    2.6716    0.0000 O   0  0  0  0  0  0  0  0  0  0  0  0
    2.8783   -0.3525    0.0000 O   0  0  0  0  0  0  0  0  0  0  0  0
    2.0000    1.6945    0.0000 O   0  0  0  0  0  0  0  0  0  0  0  0
    6.2188   -2.2043    0.0000 C   0  0  2  0  0  0  0  0  0  0  0  0
    6.6176   -1.3002    0.0000 C   0  0  2  0  0  0  0  0  0  0  0  0
    6.9543   -2.8643    0.0000 C   0  0  1  0  0  0  0  0  0  0  0  0
    7.6064   -1.4032    0.0000 C   0  0  2  0  0  0  0  0  0  0  0  0
    6.4084   -0.3284    0.0000 C   0  0  0  0  0  0  0  0  0  0  0  0
    7.2744    0.1716    0.0000 C   0  0  0  0  0  0  0  0  0  0  0  0
    5.5424    0.1716    0.0000 C   0  0  0  0  0  0  0  0  0  0  0  0
    5.5424    1.1716    0.0000 C   0  0  0  0  0  0  0  0  0  0  0  0
    7.2744    1.1716    0.0000 C   0  0  0  0  0  0  0  0  0  0  0  0
    4.6485    1.7063    0.0000 C   0  0  0  0  0  0  0  0  0  0  0  0
    6.4084    1.6716    0.0000 C   0  0  0  0  0  0  0  0  0  0  0  0
    4.4384    2.7202    0.0000 C   0  0  0  0  0  0  0  0  0  0  0  0
    3.7424    1.1925    0.0000 C   0  0  0  0  0  0  0  0  0  0  0  0
    3.4093    2.8355    0.0000 C   0  0  0  0  0  0  0  0  0  0  0  0
    3.7424    0.1508    0.0000 C   0  0  0  0  0  0  0  0  0  0  0  0
    2.9801    1.8932    0.0000 C   0  0  0  0  0  0  0  0  0  0  0  0
    7.2744    3.1716    0.0000 C   0  0  0  0  0  0  0  0  0  0  0  0
    5.6287   -2.0142    0.0000 H   0  0  0  0  0  0  0  0  0  0  0  0
    5.7720   -1.2139    0.0000 H   0  0  0  0  0  0  0  0  0  0  0  0
    7.2071   -3.4304    0.0000 H   0  0  0  0  0  0  0  0  0  0  0  0
    8.4516   -1.4932    0.0000 H   0  0  0  0  0  0  0  0  0  0  0  0
    7.8114    1.4816    0.0000 H   0  0  0  0  0  0  0  0  0  0  0  0
    5.0553    2.7815    0.0000 H   0  0  0  0  0  0  0  0  0  0  0  0
    4.4422    3.3402    0.0000 H   0  0  0  0  0  0  0  0  0  0  0  0
    3.5427    3.4410    0.0000 H   0  0  0  0  0  0  0  0  0  0  0  0
    2.8212    3.0318    0.0000 H   0  0  0  0  0  0  0  0  0  0  0  0
    7.5844    2.6347    0.0000 H   0  0  0  0  0  0  0  0  0  0  0  0
    7.8114    3.4816    0.0000 H   0  0  0  0  0  0  0  0  0  0  0  0
    6.9644    3.7086    0.0000 H   0  0  0  0  0  0  0  0  0  0  0  0
  8  1  1  6  0  0  0
 10  1  1  6  0  0  0
  2 10  1  0  0  0  0
  2 11  1  0  0  0  0
  3 11  1  0  0  0  0
  3 13  1  0  0  0  0
  4 14  1  0  0  0  0
  4 22  1  0  0  0  0
  5 18  1  0  0  0  0
  5 24  1  0  0  0  0
  6 22  2  0  0  0  0
  7 23  2  0  0  0  0
  8  9  1  0  0  0  0
  8 10  1  0  0  0  0
  8 25  1  0  0  0  0
  9 11  1  0  0  0  0
  9 12  1  0  0  0  0
  9 26  1  6  0  0  0
 10 27  1  0  0  0  0
 11 28  1  6  0  0  0
 12 13  1  0  0  0  0
 12 14  2  0  0  0  0
 13 16  2  0  0  0  0
 14 15  1  0  0  0  0
 15 17  1  0  0  0  0
 15 18  2  0  0  0  0
 16 18  1  0  0  0  0
 16 29  1  0  0  0  0
 17 19  1  0  0  0  0
 17 20  2  0  0  0  0
 19 21  1  0  0  0  0
 19 30  1  0  0  0  0
 19 31  1  0  0  0  0
 20 22  1  0  0  0  0
 20 23  1  0  0  0  0
 21 23  1  0  0  0  0
 21 32  1  0  0  0  0
 21 33  1  0  0  0  0
 24 34  1  0  0  0  0
 24 35  1  0  0  0  0
 24 36  1  0  0  0  0
M  END
