aflatoxin
vmh 0000006644
InChIKey=OQIQSTLJSLGHID-WNWIJWBNSA-N
 35 39  0  0  1  0            999 V2000
    7.3360   -0.6430    0.0000 H   0  0  0  0  0  0  0  0  0  0  0  0
    6.7399   -0.0727    0.0000 C   0  0  0  0  0  0  0  0  0  0  0  0
    5.9281   -0.2197    0.0000 C   0  0  0  0  0  0  0  0  0  0  0  0
    5.5699   -0.9629    0.0000 H   0  0  0  0  0  0  0  0  0  0  0  0
    5.5374    0.5069    0.0000 C   0  0  1  0  0  0  0  0  0  0  0  0
    4.9671   -0.0892    0.0000 H   0  0  0  0  0  0  0  0  0  0  0  0
    4.7942    0.8651    0.0000 C   0  0  0  0  0  0  0  0  0  0  0  0
    4.9053    1.6826    0.0000 C   0  0  0  0  0  0  0  0  0  0  0  0
    5.7170    1.8297    0.0000 O   0  0  0  0  0  0  0  0  0  0  0  0
    6.1077    1.1031    0.0000 C   0  0  1  0  0  0  0  0  0  0  0  0
    6.6781    1.6992    0.0000 H   0  0  0  0  0  0  0  0  0  0  0  0
    6.8509    0.7448    0.0000 O   0  0  0  0  0  0  0  0  0  0  0  0
    4.2528    2.1875    0.0000 C   0  0  0  0  0  0  0  0  0  0  0  0
    4.3638    3.0050    0.0000 H   0  0  0  0  0  0  0  0  0  0  0  0
    3.4893    1.8749    0.0000 C   0  0  0  0  0  0  0  0  0  0  0  0
    2.8368    2.3798    0.0000 O   0  0  0  0  0  0  0  0  0  0  0  0
    2.0734    2.0672    0.0000 C   0  0  0  0  0  0  0  0  0  0  0  0
    1.7608    2.8307    0.0000 H   0  0  0  0  0  0  0  0  0  0  0  0
    1.3099    1.7546    0.0000 H   0  0  0  0  0  0  0  0  0  0  0  0
    2.3860    1.3038    0.0000 H   0  0  0  0  0  0  0  0  0  0  0  0
    3.3783    1.0574    0.0000 C   0  0  0  0  0  0  0  0  0  0  0  0
    4.0307    0.5525    0.0000 C   0  0  0  0  0  0  0  0  0  0  0  0
    3.9197   -0.2649    0.0000 O   0  0  0  0  0  0  0  0  0  0  0  0
    3.1562   -0.5775    0.0000 C   0  0  0  0  0  0  0  0  0  0  0  0
    3.0452   -1.3950    0.0000 O   0  0  0  0  0  0  0  0  0  0  0  0
    2.5038   -0.0727    0.0000 C   0  0  0  0  0  0  0  0  0  0  0  0
    2.6148    0.7448    0.0000 C   0  0  0  0  0  0  0  0  0  0  0  0
    1.8716    1.1031    0.0000 C   0  0  0  0  0  0  0  0  0  0  0  0
    2.0706    1.9037    0.0000 H   0  0  0  0  0  0  0  0  0  0  0  0
    1.0469    1.1244    0.0000 H   0  0  0  0  0  0  0  0  0  0  0  0
    1.3013    0.5069    0.0000 C   0  0  0  0  0  0  0  0  0  0  0  0
    0.4790    0.4397    0.0000 H   0  0  0  0  0  0  0  0  0  0  0  0
    0.7280   -0.0863    0.0000 H   0  0  0  0  0  0  0  0  0  0  0  0
    1.6920   -0.2197    0.0000 C   0  0  0  0  0  0  0  0  0  0  0  0
    1.3338   -0.9629    0.0000 O   0  0  0  0  0  0  0  0  0  0  0  0
  1  2  1  0  0  0  0
  2  3  2  0  0  0  0
  3  4  1  0  0  0  0
  5  3  1  0  0  0  0
  5  6  1  6  0  0  0
  5  7  1  0  0  0  0
  7  8  2  0  0  0  0
  8  9  1  0  0  0  0
 10  9  1  0  0  0  0
  5 10  1  0  0  0  0
 10 11  1  6  0  0  0
 10 12  1  0  0  0  0
  2 12  1  0  0  0  0
  8 13  1  0  0  0  0
 13 14  1  0  0  0  0
 13 15  2  0  0  0  0
 15 16  1  0  0  0  0
 16 17  1  0  0  0  0
 17 18  1  0  0  0  0
 17 19  1  0  0  0  0
 17 20  1  0  0  0  0
 15 21  1  0  0  0  0
 21 22  2  0  0  0  0
  7 22  1  0  0  0  0
 22 23  1  0  0  0  0
 23 24  1  0  0  0  0
 24 25  2  0  0  0  0
 24 26  1  0  0  0  0
 26 27  2  0  0  0  0
 21 27  1  0  0  0  0
 27 28  1  0  0  0  0
 28 29  1  0  0  0  0
 28 30  1  0  0  0  0
 28 31  1  0  0  0  0
 31 32  1  0  0  0  0
 31 33  1  0  0  0  0
 31 34  1  0  0  0  0
 26 34  1  0  0  0  0
 34 35  2  0  0  0  0
M  END
