dihydro_digitoxin
COBRA Toolbox v3.0 - explicitH molecule - 23-Mar-2021 03:35:54
InChIKey=WWCGMGNIMDOEGK-BYMUNCBLSA-N
120127  0  0  1  0  0  0  0  0999 V2000
    3.6292   -7.2744    0.0000 C   0  0  0  0  0  0  0  0  0  0  0  0
    1.4883   -0.6853    0.0000 C   0  0  0  0  0  0  0  0  0  0  0  0
    2.1429   -5.9361    0.0000 C   0  0  0  0  0  0  0  0  0  0  0  0
   -0.3254    3.2784    0.0000 C   0  0  0  0  0  0  0  0  0  0  0  0
    0.3418    5.7993    0.0000 C   0  0  0  0  0  0  0  0  0  0  0  0
   -2.9706    3.3295    0.0000 C   0  0  0  0  0  0  0  0  0  0  0  0
   -2.7627    4.3077    0.0000 C   0  0  0  0  0  0  0  0  0  0  0  0
   -0.7412    1.3221    0.0000 C   0  0  0  0  0  0  0  0  0  0  0  0
   -0.1174    4.2566    0.0000 C   0  0  0  0  0  0  0  0  0  0  0  0
   -1.6037    7.2129    0.0000 C   0  0  0  0  0  0  0  0  0  0  0  0
   -0.5333    2.3003    0.0000 C   0  0  0  0  0  0  0  0  0  0  0  0
    0.0905    5.2347    0.0000 C   0  0  0  0  0  0  0  0  0  0  0  0
   -2.1915    6.4038    0.0000 C   0  0  0  0  0  0  0  0  0  0  0  0
    0.1563    8.4916    0.0000 C   0  0  0  0  0  0  0  0  0  0  0  0
   -2.4354    1.6822    0.0000 C   0  0  0  0  0  0  0  0  0  0  0  0
    0.7760   -8.2014    0.0000 C   0  0  0  0  0  0  0  0  0  0  0  0
   -1.3649   -1.6123    0.0000 C   0  0  0  0  0  0  0  0  0  0  0  0
   -0.0865   -3.9287    0.0000 C   0  0  0  0  0  0  0  0  0  0  0  0
    1.1074    7.1826    0.0000 C   0  0  0  0  0  0  0  0  0  0  0  0
    2.6781   -7.5834    0.0000 C   0  0  2  0  0  0  0  0  0  0  0  0
    0.5372   -0.9943    0.0000 C   0  0  2  0  0  0  0  0  0  0  0  0
    1.3998   -5.2670    0.0000 C   0  0  2  0  0  0  0  0  0  0  0  0
    0.1563    7.4916    0.0000 C   0  0  3  0  0  0  0  0  0  0  0  0
   -2.2275    2.6604    0.0000 C   0  0  2  0  0  0  0  0  0  0  0  0
   -1.6922    1.0131    0.0000 C   0  0  1  0  0  0  0  0  0  0  0  0
   -0.6527    6.9038    0.0000 C   0  0  1  0  0  0  0  0  0  0  0  0
   -1.0685    3.9476    0.0000 C   0  0  1  0  0  0  0  0  0  0  0  0
   -1.8116    4.6167    0.0000 C   0  0  2  0  0  0  0  0  0  0  0  0
    1.5192   -8.8706    0.0000 C   0  0  1  0  0  0  0  0  0  0  0  0
   -0.6218   -2.2814    0.0000 C   0  0  1  0  0  0  0  0  0  0  0  0
   -0.2944   -4.9069    0.0000 C   0  0  1  0  0  0  0  0  0  0  0  0
    1.1074    8.8006    0.0000 C   0  0  0  0  0  0  0  0  0  0  0  0
   -1.1570   -0.6342    0.0000 C   0  0  1  0  0  0  0  0  0  0  0  0
    0.9839   -7.2233    0.0000 C   0  0  1  0  0  0  0  0  0  0  0  0
    0.8645   -3.6197    0.0000 C   0  0  1  0  0  0  0  0  0  0  0  0
    2.4702   -8.5615    0.0000 C   0  0  2  0  0  0  0  0  0  0  0  0
    0.3293   -1.9724    0.0000 C   0  0  2  0  0  0  0  0  0  0  0  0
    0.4487   -5.5760    0.0000 C   0  0  2  0  0  0  0  0  0  0  0  0
   -1.2764    2.9694    0.0000 C   0  0  2  0  0  0  0  0  0  0  0  0
   -0.6527    5.9038    0.0000 C   0  0  1  0  0  0  0  0  0  0  0  0
   -1.6037    5.5948    0.0000 C   0  0  2  0  0  0  0  0  0  0  0  0
    1.3113   -9.8487    0.0000 O   0  0  0  0  0  0  0  0  0  0  0  0
   -0.8297   -3.2596    0.0000 O   0  0  0  0  0  0  0  0  0  0  0  0
   -1.2455   -5.2159    0.0000 O   0  0  0  0  0  0  0  0  0  0  0  0
    1.4164    9.7517    0.0000 O   0  0  0  0  0  0  0  0  0  0  0  0
    3.2134   -9.2307    0.0000 O   0  0  0  0  0  0  0  0  0  0  0  0
   -2.3469    4.9257    0.0000 O   0  0  0  0  0  0  0  0  0  0  0  0
    1.6952    7.9916    0.0000 O   0  0  0  0  0  0  0  0  0  0  0  0
    1.9350   -6.9143    0.0000 O   0  0  0  0  0  0  0  0  0  0  0  0
   -0.2059   -0.3252    0.0000 O   0  0  0  0  0  0  0  0  0  0  0  0
    1.6077   -4.2888    0.0000 O   0  0  0  0  0  0  0  0  0  0  0  0
   -1.9001    0.0350    0.0000 O   0  0  0  0  0  0  0  0  0  0  0  0
    0.2408   -6.5542    0.0000 O   0  0  0  0  0  0  0  0  0  0  0  0
    1.0724   -2.6416    0.0000 O   0  0  0  0  0  0  0  0  0  0  0  0
    4.4243   -7.9904    0.0000 H   0  0  0  0  0  0  0  0  0  0  0  0
    3.8517   -6.2278    0.0000 H   0  0  0  0  0  0  0  0  0  0  0  0
    4.6468   -6.9438    0.0000 H   0  0  0  0  0  0  0  0  0  0  0  0
    2.2834   -1.4013    0.0000 H   0  0  0  0  0  0  0  0  0  0  0  0
    1.7108    0.3613    0.0000 H   0  0  0  0  0  0  0  0  0  0  0  0
    2.5059   -0.3547    0.0000 H   0  0  0  0  0  0  0  0  0  0  0  0
    1.9204   -6.9827    0.0000 H   0  0  0  0  0  0  0  0  0  0  0  0
    3.1605   -5.6055    0.0000 H   0  0  0  0  0  0  0  0  0  0  0  0
    2.9381   -6.6521    0.0000 H   0  0  0  0  0  0  0  0  0  0  0  0
    0.4698    2.5624    0.0000 H   0  0  0  0  0  0  0  0  0  0  0  0
   -0.1029    4.3250    0.0000 H   0  0  0  0  0  0  0  0  0  0  0  0
    0.6922    3.6090    0.0000 H   0  0  0  0  0  0  0  0  0  0  0  0
    0.7770    4.8218    0.0000 H   0  0  0  0  0  0  0  0  0  0  0  0
    0.9707    6.6650    0.0000 H   0  0  0  0  0  0  0  0  0  0  0  0
    1.4059    5.6875    0.0000 H   0  0  0  0  0  0  0  0  0  0  0  0
   -3.9882    2.9988    0.0000 H   0  0  0  0  0  0  0  0  0  0  0  0
   -3.1931    2.2829    0.0000 H   0  0  0  0  0  0  0  0  0  0  0  0
   -3.5579    5.0237    0.0000 H   0  0  0  0  0  0  0  0  0  0  0  0
   -2.5402    5.3543    0.0000 H   0  0  0  0  0  0  0  0  0  0  0  0
    0.0540    0.6061    0.0000 H   0  0  0  0  0  0  0  0  0  0  0  0
   -0.9637    0.2755    0.0000 H   0  0  0  0  0  0  0  0  0  0  0  0
    0.6778    3.5406    0.0000 H   0  0  0  0  0  0  0  0  0  0  0  0
   -0.3399    3.2100    0.0000 H   0  0  0  0  0  0  0  0  0  0  0  0
   -1.9343    8.2305    0.0000 H   0  0  0  0  0  0  0  0  0  0  0  0
   -0.8470    7.9695    0.0000 H   0  0  0  0  0  0  0  0  0  0  0  0
    0.4843    2.6310    0.0000 H   0  0  0  0  0  0  0  0  0  0  0  0
   -0.3108    3.3469    0.0000 H   0  0  0  0  0  0  0  0  0  0  0  0
    1.1081    5.5654    0.0000 H   0  0  0  0  0  0  0  0  0  0  0  0
    0.3129    6.2813    0.0000 H   0  0  0  0  0  0  0  0  0  0  0  0
   -3.2615    6.4038    0.0000 H   0  0  0  0  0  0  0  0  0  0  0  0
   -2.6772    5.4504    0.0000 H   0  0  0  0  0  0  0  0  0  0  0  0
   -0.7093    9.1205    0.0000 H   0  0  0  0  0  0  0  0  0  0  0  0
    0.3237    9.5484    0.0000 H   0  0  0  0  0  0  0  0  0  0  0  0
   -3.4530    1.3515    0.0000 H   0  0  0  0  0  0  0  0  0  0  0  0
   -2.6578    0.6356    0.0000 H   0  0  0  0  0  0  0  0  0  0  0  0
   -0.2416   -8.5320    0.0000 H   0  0  0  0  0  0  0  0  0  0  0  0
   -0.0192   -7.4854    0.0000 H   0  0  0  0  0  0  0  0  0  0  0  0
   -2.3825   -1.9429    0.0000 H   0  0  0  0  0  0  0  0  0  0  0  0
   -2.1601   -0.8963    0.0000 H   0  0  0  0  0  0  0  0  0  0  0  0
   -0.8817   -3.2127    0.0000 H   0  0  0  0  0  0  0  0  0  0  0  0
    0.1360   -2.8821    0.0000 H   0  0  0  0  0  0  0  0  0  0  0  0
    1.4381    6.1650    0.0000 H   0  0  0  0  0  0  0  0  0  0  0  0
    2.1642    7.0152    0.0000 H   0  0  0  0  0  0  0  0  0  0  0  0
    3.4733   -8.2994    0.0000 H   0  0  0  0  0  0  0  0  0  0  0  0
    1.3324   -1.7103    0.0000 H   0  0  0  0  0  0  0  0  0  0  0  0
    1.1773   -6.3136    0.0000 H   0  0  0  0  0  0  0  0  0  0  0  0
    1.0219    8.1205    0.0000 H   0  0  0  0  0  0  0  0  0  0  0  0
   -3.2451    2.3297    0.0000 H   0  0  0  0  0  0  0  0  0  0  0  0
   -0.8970    0.2971    0.0000 H   0  0  0  0  0  0  0  0  0  0  0  0
   -0.8200    7.9606    0.0000 H   0  0  0  0  0  0  0  0  0  0  0  0
   -0.8460    4.9942    0.0000 H   0  0  0  0  0  0  0  0  0  0  0  0
   -2.0341    3.5701    0.0000 H   0  0  0  0  0  0  0  0  0  0  0  0
    0.5016   -9.2012    0.0000 H   0  0  0  0  0  0  0  0  0  0  0  0
   -1.6394   -2.6121    0.0000 H   0  0  0  0  0  0  0  0  0  0  0  0
   -1.0896   -4.1909    0.0000 H   0  0  0  0  0  0  0  0  0  0  0  0
   -2.1746   -0.9648    0.0000 H   0  0  0  0  0  0  0  0  0  0  0  0
   -0.0337   -7.5539    0.0000 H   0  0  0  0  0  0  0  0  0  0  0  0
    0.0693   -2.9037    0.0000 H   0  0  0  0  0  0  0  0  0  0  0  0
    3.4878   -8.2309    0.0000 H   0  0  0  0  0  0  0  0  0  0  0  0
    1.3469   -1.6418    0.0000 H   0  0  0  0  0  0  0  0  0  0  0  0
    1.2439   -6.2920    0.0000 H   0  0  0  0  0  0  0  0  0  0  0  0
    0.3888  -10.1484    0.0000 H   0  0  0  0  0  0  0  0  0  0  0  0
   -1.7522   -3.5594    0.0000 H   0  0  0  0  0  0  0  0  0  0  0  0
   -1.9663   -4.5668    0.0000 H   0  0  0  0  0  0  0  0  0  0  0  0
    3.0117  -10.1795    0.0000 H   0  0  0  0  0  0  0  0  0  0  0  0
   -3.2694    5.2255    0.0000 H   0  0  0  0  0  0  0  0  0  0  0  0
  1 55  1  0  0  0  0
  1 56  1  0  0  0  0
  1 57  1  0  0  0  0
  2 58  1  0  0  0  0
  2 59  1  0  0  0  0
  2 60  1  0  0  0  0
  3 61  1  0  0  0  0
  3 62  1  0  0  0  0
  3 63  1  0  0  0  0
  4 64  1  0  0  0  0
  4 65  1  0  0  0  0
  4 66  1  0  0  0  0
  5 67  1  0  0  0  0
  5 68  1  0  0  0  0
  5 69  1  0  0  0  0
  6  7  1  0  0  0  0
  6 70  1  0  0  0  0
  6 71  1  0  0  0  0
  7 72  1  0  0  0  0
  7 73  1  0  0  0  0
  8 11  1  0  0  0  0
  8 25  1  0  0  0  0
  8 74  1  0  0  0  0
  8 75  1  0  0  0  0
  9 12  1  0  0  0  0
  9 76  1  0  0  0  0
  9 77  1  0  0  0  0
 10 13  1  0  0  0  0
 10 78  1  0  0  0  0
 10 79  1  0  0  0  0
 11 39  1  0  0  0  0
 11 80  1  0  0  0  0
 11 81  1  0  0  0  0
 12 40  1  0  0  0  0
 12 82  1  0  0  0  0
 12 83  1  0  0  0  0
 13 41  1  0  0  0  0
 13 84  1  0  0  0  0
 13 85  1  0  0  0  0
 14 23  1  0  0  0  0
 14 32  1  0  0  0  0
 14 86  1  0  0  0  0
 14 87  1  0  0  0  0
 15 24  1  0  0  0  0
 15 25  1  0  0  0  0
 15 88  1  0  0  0  0
 15 89  1  0  0  0  0
 16 29  1  0  0  0  0
 16 34  1  0  0  0  0
 16 90  1  0  0  0  0
 16 91  1  0  0  0  0
 17 30  1  0  0  0  0
 17 33  1  0  0  0  0
 17 92  1  0  0  0  0
 17 93  1  0  0  0  0
 18 31  1  0  0  0  0
 18 35  1  0  0  0  0
 18 94  1  0  0  0  0
 18 95  1  0  0  0  0
 19 23  1  0  0  0  0
 19 48  1  0  0  0  0
 19 96  1  0  0  0  0
 19 97  1  0  0  0  0
 20  1  1  0  0  0  0
 20 36  1  0  0  0  0
 20 49  1  0  0  0  0
 20 98  1  1  0  0  0
 21  2  1  0  0  0  0
 21 37  1  0  0  0  0
 21 50  1  0  0  0  0
 21 99  1  1  0  0  0
 22  3  1  0  0  0  0
 22 38  1  0  0  0  0
 22 51  1  0  0  0  0
 22100  1  1  0  0  0
 23 26  1  0  0  0  0
 23101  1  0  0  0  0
 24  6  1  0  0  0  0
 24 39  1  0  0  0  0
 24102  1  6  0  0  0
 25 52  1  0  0  0  0
 25103  1  1  0  0  0
 26 10  1  0  0  0  0
 26 40  1  0  0  0  0
 26104  1  6  0  0  0
 27  9  1  0  0  0  0
 27 28  1  0  0  0  0
 27 39  1  0  0  0  0
 27105  1  1  0  0  0
 28  7  1  0  0  0  0
 28 41  1  0  0  0  0
 28106  1  6  0  0  0
 29 36  1  0  0  0  0
 29 42  1  0  0  0  0
 29107  1  6  0  0  0
 30 37  1  0  0  0  0
 30 43  1  0  0  0  0
 30108  1  6  0  0  0
 31 38  1  0  0  0  0
 31 44  1  0  0  0  0
 31109  1  6  0  0  0
 32 45  2  0  0  0  0
 32 48  1  0  0  0  0
 33 50  1  0  0  0  0
 33 52  1  0  0  0  0
 33110  1  1  0  0  0
 34 49  1  0  0  0  0
 34 53  1  0  0  0  0
 34111  1  1  0  0  0
 35 51  1  0  0  0  0
 35 54  1  0  0  0  0
 35112  1  1  0  0  0
 36 46  1  0  0  0  0
 36113  1  6  0  0  0
 37 54  1  0  0  0  0
 37114  1  6  0  0  0
 38 53  1  0  0  0  0
 38115  1  6  0  0  0
 39  4  1  6  0  0  0
 40  5  1  6  0  0  0
 40 41  1  0  0  0  0
 41 47  1  6  0  0  0
 42116  1  0  0  0  0
 43117  1  0  0  0  0
 44118  1  0  0  0  0
 46119  1  0  0  0  0
 47120  1  0  0  0  0
M  END

