
  Marvin  02120600002D          

 25 29  0  0  1  0            999 V2000
   -0.6920   -0.3228    0.0000 C   0  0  0  0  0  0  0  0  0  0  0  0
    0.0225    0.0897    0.0000 C   0  0  0  0  0  0  0  0  0  0  0  0
   -1.4766   -0.0678    0.0000 C   0  0  1  0  0  0  0  0  0  0  0  0
   -0.6920   -1.1478    0.0000 C   0  0  0  0  0  0  0  0  0  0  0  0
    0.7370   -0.3228    0.0000 C   0  0  0  0  0  0  0  0  0  0  0  0
    0.0225    0.9147    0.0000 O   0  0  0  0  0  0  0  0  0  0  0  0
   -1.9615   -0.7353    0.0000 C   0  0  1  0  0  0  0  0  0  0  0  0
   -1.9615    0.5996    0.0000 C   0  0  0  0  0  0  0  0  0  0  0  0
    0.0225   -1.5603    0.0000 C   0  0  0  0  0  0  0  0  0  0  0  0
   -1.4766   -1.4027    0.0000 O   0  0  0  0  0  0  0  0  0  0  0  0
    1.4514    0.0897    0.0000 C   0  0  0  0  0  0  0  0  0  0  0  0
    0.7370   -1.1478    0.0000 C   0  0  0  0  0  0  0  0  0  0  0  0
    0.7370    1.3272    0.0000 C   0  0  0  0  0  0  0  0  0  0  0  0
   -2.7461   -0.4803    0.0000 O   0  0  0  0  0  0  0  0  0  0  0  0
   -2.7461    0.3447    0.0000 C   0  0  0  0  0  0  0  0  0  0  0  0
    1.4514    0.9147    0.0000 C   0  0  0  0  0  0  0  0  0  0  0  0
    2.2361   -0.1652    0.0000 C   0  0  0  0  0  0  0  0  0  0  0  0
    1.4514   -1.5603    0.0000 O   0  0  0  0  0  0  0  0  0  0  0  0
    0.7370    2.1522    0.0000 O   0  0  0  0  0  0  0  0  0  0  0  0
    2.2361    1.1697    0.0000 C   0  0  0  0  0  0  0  0  0  0  0  0
    2.7210    0.5022    0.0000 C   0  0  0  0  0  0  0  0  0  0  0  0
    2.1659   -1.1478    0.0000 C   0  0  0  0  0  0  0  0  0  0  0  0
    2.4910    1.9543    0.0000 O   0  0  0  0  0  0  0  0  0  0  0  0
   -0.9917    0.5996    0.0000 H   0  0  0  0  0  0  0  0  0  0  0  0
   -2.4464   -1.4027    0.0000 H   0  0  0  0  0  0  0  0  0  0  0  0
  1  2  2  0  0  0  0
  1  3  1  0  0  0  0
  1  4  1  0  0  0  0
  2  5  1  0  0  0  0
  2  6  1  0  0  0  0
  3  7  1  0  0  0  0
  3  8  1  0  0  0  0
  4  9  2  0  0  0  0
  4 10  1  0  0  0  0
  5 11  1  0  0  0  0
  5 12  2  0  0  0  0
  6 13  1  0  0  0  0
  7 14  1  0  0  0  0
  8 15  2  0  0  0  0
 11 16  2  0  0  0  0
 11 17  1  0  0  0  0
 12 18  1  0  0  0  0
 13 19  2  0  0  0  0
 16 20  1  0  0  0  0
 17 21  1  0  0  0  0
 18 22  1  0  0  0  0
 20 23  2  0  0  0  0
  7 10  1  0  0  0  0
  9 12  1  0  0  0  0
 13 16  1  0  0  0  0
 14 15  1  0  0  0  0
 20 21  1  0  0  0  0
  3 24  1  6  0  0  0
  7 25  1  6  0  0  0
M  END

