
  Marvin  02120600062D          

 28 33  0  0  1  0            999 V2000
    0.9340   -0.3669    0.0000 C   0  0  0  0  0  0  0  0  0  0  0  0
    0.9340   -1.1919    0.0000 C   0  0  0  0  0  0  0  0  0  0  0  0
    0.2195    0.0456    0.0000 C   0  0  0  0  0  0  0  0  0  0  0  0
    0.2195   -1.6044    0.0000 C   0  0  0  0  0  0  0  0  0  0  0  0
   -0.4950   -0.3669    0.0000 C   0  0  0  0  0  0  0  0  0  0  0  0
   -0.4950   -1.1919    0.0000 C   0  0  0  0  0  0  0  0  0  0  0  0
    1.6485    0.8706    0.0000 C   0  0  0  0  0  0  0  0  0  0  0  0
    1.6485    0.0456    0.0000 C   0  0  0  0  0  0  0  0  0  0  0  0
    0.9340    1.2831    0.0000 C   0  0  0  0  0  0  0  0  0  0  0  0
    0.2195    0.8706    0.0000 O   0  0  0  0  0  0  0  0  0  0  0  0
    2.4331    1.1255    0.0000 C   0  0  0  0  0  0  0  0  0  0  0  0
    2.9180    0.4581    0.0000 C   0  0  0  0  0  0  0  0  0  0  0  0
    2.4331   -0.2093    0.0000 C   0  0  0  0  0  0  0  0  0  0  0  0
   -1.2796   -0.1120    0.0000 C   0  0  1  0  0  0  0  0  0  0  0  0
   -1.7645   -0.7794    0.0000 C   0  0  1  0  0  0  0  0  0  0  0  0
   -1.2796   -1.4468    0.0000 O   0  0  0  0  0  0  0  0  0  0  0  0
   -1.7645    0.5555    0.0000 C   0  0  2  0  0  0  0  0  0  0  0  0
   -2.5491    0.3005    0.0000 C   0  0  2  0  0  0  0  0  0  0  0  0
   -2.5491   -0.5245    0.0000 O   0  0  0  0  0  0  0  0  0  0  0  0
    0.9340    2.1081    0.0000 O   0  0  0  0  0  0  0  0  0  0  0  0
    2.6880    1.9102    0.0000 O   0  0  0  0  0  0  0  0  0  0  0  0
    1.6485   -1.6044    0.0000 O   0  0  0  0  0  0  0  0  0  0  0  0
    2.3629   -1.1919    0.0000 C   0  0  0  0  0  0  0  0  0  0  0  0
   -0.7947    0.5555    0.0000 H   0  0  0  0  0  0  0  0  0  0  0  0
   -2.2494   -1.4468    0.0000 H   0  0  0  0  0  0  0  0  0  0  0  0
   -2.3776    1.1075    0.0000 O   0  0  0  0  0  0  0  0  0  0  0  0
   -0.9904    0.8406    0.0000 H   0  0  0  0  0  0  0  0  0  0  0  0
   -3.3430    0.0762    0.0000 H   0  0  0  0  0  0  0  0  0  0  0  0
  2  1  2  0  0  0  0
  3  1  1  0  0  0  0
  4  2  1  0  0  0  0
  5  3  2  0  0  0  0
  6  4  2  0  0  0  0
  6  5  1  0  0  0  0
  9  7  1  0  0  0  0
  1  8  1  0  0  0  0
 10  9  1  0  0  0  0
  3 10  1  0  0  0  0
 11  7  1  0  0  0  0
  8  7  2  0  0  0  0
 12 11  1  0  0  0  0
 13  8  1  0  0  0  0
 13 12  1  0  0  0  0
 14  5  1  0  0  0  0
 16  6  1  0  0  0  0
 15 16  1  0  0  0  0
 14 17  1  0  0  0  0
 14 15  1  0  0  0  0
 17 18  1  0  0  0  0
 15 19  1  0  0  0  0
 18 19  1  0  0  0  0
 20  9  2  0  0  0  0
 21 11  2  0  0  0  0
 22  2  1  0  0  0  0
 23 22  1  0  0  0  0
 14 24  1  6  0  0  0
 15 25  1  6  0  0  0
 17 26  1  0  0  0  0
 18 26  1  0  0  0  0
 17 27  1  1  0  0  0
 18 28  1  1  0  0  0
M  END

